data_Wien2k_Data
_cell_length_a    2.225938
_cell_length_b    2.225938
_cell_length_c    3.516477
_cell_angle_alpha   90.000000
_cell_angle_beta    90.000000
_cell_angle_gamma  120.000000
_symmetry_space_group_name_H-M         'P63/mmc'
_symmetry_space_group_number  194

_refine_date  ' 8- 5-2015'
_refine_method 'generated from Wien2k code' 
_refine_special_details 
;
Structure converted from Wien2k struct file, Version 9.1
File Name /home/kurt/lda/tocif/tmp/tmp.struct                                             
Title 'Be LDA'
;

loop_
_symmetry_equiv_pos_as_xyz
   +x,+y,+z
   -y,+x-y,+z
   -x+y,-x,+z
   -x,-y,+z+1/2
   +y,-x+y,+z+1/2
   +x-y,+x,+z+1/2
   +y,+x,-z
   +x-y,-y,-z
   -x,-x+y,-z
   -y,-x,-z+1/2
   -x+y,+y,-z+1/2
   +x,+x-y,-z+1/2
   -x,-y,-z
   +y,-x+y,-z
   +x-y,+x,-z
   +x,+y,-z+1/2
   -y,+x-y,-z+1/2
   -x+y,-x,-z+1/2
   -y,-x,+z
   -x+y,+y,+z
   +x,+x-y,+z
   +y,+x,+z+1/2
   +x-y,-y,+z+1/2
   -x,-x+y,+z+1/2
loop_
_atom_site_label
_atom_site_type_symbol
_atom_site_fract_x
_atom_site_fract_y
_atom_site_fract_z
Be001  Be  0.33333333  0.66666667  0.75000000
#End data_Wien2k_Data

