data_Wien2k_Data
_cell_length_a    4.494687
_cell_length_b    4.494687
_cell_length_c   11.491601
_cell_angle_alpha   90.000000
_cell_angle_beta    90.000000
_cell_angle_gamma  120.000000
_symmetry_space_group_name_H-M         'P-3m1  '
_symmetry_space_group_number  164

_refine_date  ' 8- 5-2015'
_refine_method 'generated from Wien2k code' 
_refine_special_details 
;
Structure converted from Wien2k struct file, Version 9.1
File Name /home/kurt/lda/tocif/tmp/tmp.struct                                             
Title 'Bi LDA'
;

loop_
_symmetry_equiv_pos_as_xyz
   +x,+y,+z
   -y,+x-y,+z
   -x+y,-x,+z
   +y,+x,-z
   +x-y,-y,-z
   -x,-x+y,-z
   -x,-y,-z
   +y,-x+y,-z
   +x-y,+x,-z
   -y,-x,+z
   -x+y,+y,+z
   +x,+x-y,+z
loop_
_atom_site_label
_atom_site_type_symbol
_atom_site_fract_x
_atom_site_fract_y
_atom_site_fract_z
Bi001  Bi  0.00000000  0.00000000  0.73745000
Bi002  Bi  0.66666667  0.33333333  0.07078300
Bi003  Bi  0.33333333  0.66666667  0.40411700
#End data_Wien2k_Data

