#======================================================================

# CRYSTAL DATA

#----------------------------------------------------------------------

data_VESTA_phase_1


_pd_phase_name                         'LDA bromine'
_cell_length_a                         6.64313
_cell_length_b                         3.93032
_cell_length_c                         8.40492
_cell_angle_alpha                      90
_cell_angle_beta                       90
_cell_angle_gamma                      90
_symmetry_space_group_name_H-M         'P 1'
_symmetry_Int_Tables_number            1

loop_
_symmetry_equiv_pos_as_xyz
   'x, y, z'

loop_
   _atom_site_label
   _atom_site_occupancy
   _atom_site_fract_x
   _atom_site_fract_y
   _atom_site_fract_z
   _atom_site_adp_type
   _atom_site_B_iso_or_equiv
   _atom_site_type_symbol
   Br1        1.0     0.000000      0.162872      0.120835     Biso  1.000000 Br
   Br2        1.0     0.500000      0.662872      0.120835     Biso  1.000000 Br
   Br3        1.0     0.000000      0.337128      0.620835     Biso  1.000000 Br
   Br4        1.0     0.500000      0.837128      0.620835     Biso  1.000000 Br
   Br5        1.0     0.000000      0.662872      0.379165     Biso  1.000000 Br
   Br6        1.0     0.500000      0.162872      0.379165     Biso  1.000000 Br
   Br7        1.0     0.000000      0.837128      0.879165     Biso  1.000000 Br
   Br8        1.0     0.500000      0.337128      0.879165     Biso  1.000000 Br
