#======================================================================

# CRYSTAL DATA

#----------------------------------------------------------------------

data_VESTA_phase_1


_pd_phase_name                         'LDA chlorine'
_cell_length_a                         6.18175
_cell_length_b                         3.72507
_cell_length_c                         7.81234
_cell_angle_alpha                      90
_cell_angle_beta                       90
_cell_angle_gamma                      90
_symmetry_space_group_name_H-M         'P 1'
_symmetry_Int_Tables_number            1

loop_
_symmetry_equiv_pos_as_xyz
   'x, y, z'

loop_
   _atom_site_label
   _atom_site_occupancy
   _atom_site_fract_x
   _atom_site_fract_y
   _atom_site_fract_z
   _atom_site_adp_type
   _atom_site_B_iso_or_equiv
   _atom_site_type_symbol
   Cl1        1.0     0.000000      0.136887      0.113071     Biso  1.000000 Cl
   Cl2        1.0     0.500000      0.636887      0.113071     Biso  1.000000 Cl
   Cl3        1.0     0.000000      0.363113      0.613071     Biso  1.000000 Cl
   Cl4        1.0     0.500000      0.863113      0.613071     Biso  1.000000 Cl
   Cl5        1.0     0.000000      0.636887      0.386929     Biso  1.000000 Cl
   Cl6        1.0     0.500000      0.136887      0.386929     Biso  1.000000 Cl
   Cl7        1.0     0.000000      0.863113      0.886929     Biso  1.000000 Cl
   Cl8        1.0     0.500000      0.363113      0.886929     Biso  1.000000 Cl
