#======================================================================

# CRYSTAL DATA

#----------------------------------------------------------------------

data_VESTA_phase_1


_pd_phase_name                         'LDA fluorine'
_cell_length_a                         4.91553
_cell_length_b                         6.11159
_cell_length_c                         3.03845
_cell_angle_alpha                      90
_cell_angle_beta                       90
_cell_angle_gamma                      88.22903
_symmetry_space_group_name_H-M         'P 1'
_symmetry_Int_Tables_number            1

loop_
_symmetry_equiv_pos_as_xyz
   'x, y, z'

loop_
   _atom_site_label
   _atom_site_occupancy
   _atom_site_fract_x
   _atom_site_fract_y
   _atom_site_fract_z
   _atom_site_adp_type
   _atom_site_B_iso_or_equiv
   _atom_site_type_symbol
   F1         1.0     0.248005      0.602492      0.354636     Biso  1.000000 F
   F2         1.0     0.748005      0.602492      0.854636     Biso  1.000000 F
   F3         1.0     0.751995      0.897508      0.354636     Biso  1.000000 F
   F4         1.0     0.251995      0.897508      0.854636     Biso  1.000000 F
   F5         1.0     0.751995      0.397508      0.645364     Biso  1.000000 F
   F6         1.0     0.251995      0.397508      0.145364     Biso  1.000000 F
   F7         1.0     0.248005      0.102492      0.645364     Biso  1.000000 F
   F8         1.0     0.748005      0.102492      0.145364     Biso  1.000000 F
