#======================================================================

# CRYSTAL DATA

#----------------------------------------------------------------------

data_VESTA_phase_1


_pd_phase_name                         '111111'
_cell_length_a                         5.62510
_cell_length_b                         5.62510
_cell_length_c                         5.62510
_cell_angle_alpha                      90
_cell_angle_beta                       90
_cell_angle_gamma                      90
_symmetry_space_group_name_H-M         'F d -3 m'
_symmetry_Int_Tables_number            227

loop_
_symmetry_equiv_pos_as_xyz
   'x, y, z'
   '-x, -y, -z'
   '-x+3/4, -y+1/4, z+1/2'
   'x+1/4, y+3/4, -z+1/2'
   '-x+1/4, y+1/2, -z+3/4'
   'x+3/4, -y+1/2, z+1/4'
   'x+1/2, -y+3/4, -z+1/4'
   '-x+1/2, y+1/4, z+3/4'
   'z, x, y'
   '-z, -x, -y'
   'z+1/2, -x+3/4, -y+1/4'
   '-z+1/2, x+1/4, y+3/4'
   '-z+3/4, -x+1/4, y+1/2'
   'z+1/4, x+3/4, -y+1/2'
   '-z+1/4, x+1/2, -y+3/4'
   'z+3/4, -x+1/2, y+1/4'
   'y, z, x'
   '-y, -z, -x'
   '-y+1/4, z+1/2, -x+3/4'
   'y+3/4, -z+1/2, x+1/4'
   'y+1/2, -z+3/4, -x+1/4'
   '-y+1/2, z+1/4, x+3/4'
   '-y+3/4, -z+1/4, x+1/2'
   'y+1/4, z+3/4, -x+1/2'
   'y+3/4, x+1/4, -z+1/2'
   '-y+1/4, -x+3/4, z+1/2'
   '-y, -x, -z'
   'y, x, z'
   'y+1/4, -x+1/2, z+3/4'
   '-y+3/4, x+1/2, -z+1/4'
   '-y+1/2, x+3/4, z+1/4'
   'y+1/2, -x+1/4, -z+3/4'
   'x+3/4, z+1/4, -y+1/2'
   '-x+1/4, -z+3/4, y+1/2'
   '-x+1/2, z+3/4, y+1/4'
   'x+1/2, -z+1/4, -y+3/4'
   '-x, -z, -y'
   'x, z, y'
   'x+1/4, -z+1/2, y+3/4'
   '-x+3/4, z+1/2, -y+1/4'
   'z+3/4, y+1/4, -x+1/2'
   '-z+1/4, -y+3/4, x+1/2'
   'z+1/4, -y+1/2, x+3/4'
   '-z+3/4, y+1/2, -x+1/4'
   '-z+1/2, y+3/4, x+1/4'
   'z+1/2, -y+1/4, -x+3/4'
   '-z, -y, -x'
   'z, y, x'
   'x, y+1/2, z+1/2'
   '-x, -y+1/2, -z+1/2'
   '-x+3/4, -y+3/4, z'
   'x+1/4, y+1/4, -z'
   '-x+1/4, y, -z+1/4'
   'x+3/4, -y, z+3/4'
   'x+1/2, -y+1/4, -z+3/4'
   '-x+1/2, y+3/4, z+1/4'
   'z, x+1/2, y+1/2'
   '-z, -x+1/2, -y+1/2'
   'z+1/2, -x+1/4, -y+3/4'
   '-z+1/2, x+3/4, y+1/4'
   '-z+3/4, -x+3/4, y'
   'z+1/4, x+1/4, -y'
   '-z+1/4, x, -y+1/4'
   'z+3/4, -x, y+3/4'
   'y, z+1/2, x+1/2'
   '-y, -z+1/2, -x+1/2'
   '-y+1/4, z, -x+1/4'
   'y+3/4, -z, x+3/4'
   'y+1/2, -z+1/4, -x+3/4'
   '-y+1/2, z+3/4, x+1/4'
   '-y+3/4, -z+3/4, x'
   'y+1/4, z+1/4, -x'
   'y+3/4, x+3/4, -z'
   '-y+1/4, -x+1/4, z'
   '-y, -x+1/2, -z+1/2'
   'y, x+1/2, z+1/2'
   'y+1/4, -x, z+1/4'
   '-y+3/4, x, -z+3/4'
   '-y+1/2, x+1/4, z+3/4'
   'y+1/2, -x+3/4, -z+1/4'
   'x+3/4, z+3/4, -y'
   '-x+1/4, -z+1/4, y'
   '-x+1/2, z+1/4, y+3/4'
   'x+1/2, -z+3/4, -y+1/4'
   '-x, -z+1/2, -y+1/2'
   'x, z+1/2, y+1/2'
   'x+1/4, -z, y+1/4'
   '-x+3/4, z, -y+3/4'
   'z+3/4, y+3/4, -x'
   '-z+1/4, -y+1/4, x'
   'z+1/4, -y, x+1/4'
   '-z+3/4, y, -x+3/4'
   '-z+1/2, y+1/4, x+3/4'
   'z+1/2, -y+3/4, -x+1/4'
   '-z, -y+1/2, -x+1/2'
   'z, y+1/2, x+1/2'
   'x+1/2, y, z+1/2'
   '-x+1/2, -y, -z+1/2'
   '-x+1/4, -y+1/4, z'
   'x+3/4, y+3/4, -z'
   '-x+3/4, y+1/2, -z+1/4'
   'x+1/4, -y+1/2, z+3/4'
   'x, -y+3/4, -z+3/4'
   '-x, y+1/4, z+1/4'
   'z+1/2, x, y+1/2'
   '-z+1/2, -x, -y+1/2'
   'z, -x+3/4, -y+3/4'
   '-z, x+1/4, y+1/4'
   '-z+1/4, -x+1/4, y'
   'z+3/4, x+3/4, -y'
   '-z+3/4, x+1/2, -y+1/4'
   'z+1/4, -x+1/2, y+3/4'
   'y+1/2, z, x+1/2'
   '-y+1/2, -z, -x+1/2'
   '-y+3/4, z+1/2, -x+1/4'
   'y+1/4, -z+1/2, x+3/4'
   'y, -z+3/4, -x+3/4'
   '-y, z+1/4, x+1/4'
   '-y+1/4, -z+1/4, x'
   'y+3/4, z+3/4, -x'
   'y+1/4, x+1/4, -z'
   '-y+3/4, -x+3/4, z'
   '-y+1/2, -x, -z+1/2'
   'y+1/2, x, z+1/2'
   'y+3/4, -x+1/2, z+1/4'
   '-y+1/4, x+1/2, -z+3/4'
   '-y, x+3/4, z+3/4'
   'y, -x+1/4, -z+1/4'
   'x+1/4, z+1/4, -y'
   '-x+3/4, -z+3/4, y'
   '-x, z+3/4, y+3/4'
   'x, -z+1/4, -y+1/4'
   '-x+1/2, -z, -y+1/2'
   'x+1/2, z, y+1/2'
   'x+3/4, -z+1/2, y+1/4'
   '-x+1/4, z+1/2, -y+3/4'
   'z+1/4, y+1/4, -x'
   '-z+3/4, -y+3/4, x'
   'z+3/4, -y+1/2, x+1/4'
   '-z+1/4, y+1/2, -x+3/4'
   '-z, y+3/4, x+3/4'
   'z, -y+1/4, -x+1/4'
   '-z+1/2, -y, -x+1/2'
   'z+1/2, y, x+1/2'
   'x+1/2, y+1/2, z'
   '-x+1/2, -y+1/2, -z'
   '-x+1/4, -y+3/4, z+1/2'
   'x+3/4, y+1/4, -z+1/2'
   '-x+3/4, y, -z+3/4'
   'x+1/4, -y, z+1/4'
   'x, -y+1/4, -z+1/4'
   '-x, y+3/4, z+3/4'
   'z+1/2, x+1/2, y'
   '-z+1/2, -x+1/2, -y'
   'z, -x+1/4, -y+1/4'
   '-z, x+3/4, y+3/4'
   '-z+1/4, -x+3/4, y+1/2'
   'z+3/4, x+1/4, -y+1/2'
   '-z+3/4, x, -y+3/4'
   'z+1/4, -x, y+1/4'
   'y+1/2, z+1/2, x'
   '-y+1/2, -z+1/2, -x'
   '-y+3/4, z, -x+3/4'
   'y+1/4, -z, x+1/4'
   'y, -z+1/4, -x+1/4'
   '-y, z+3/4, x+3/4'
   '-y+1/4, -z+3/4, x+1/2'
   'y+3/4, z+1/4, -x+1/2'
   'y+1/4, x+3/4, -z+1/2'
   '-y+3/4, -x+1/4, z+1/2'
   '-y+1/2, -x+1/2, -z'
   'y+1/2, x+1/2, z'
   'y+3/4, -x, z+3/4'
   '-y+1/4, x, -z+1/4'
   '-y, x+1/4, z+1/4'
   'y, -x+3/4, -z+3/4'
   'x+1/4, z+3/4, -y+1/2'
   '-x+3/4, -z+1/4, y+1/2'
   '-x, z+1/4, y+1/4'
   'x, -z+3/4, -y+3/4'
   '-x+1/2, -z+1/2, -y'
   'x+1/2, z+1/2, y'
   'x+3/4, -z, y+3/4'
   '-x+1/4, z, -y+1/4'
   'z+1/4, y+3/4, -x+1/2'
   '-z+3/4, -y+1/4, x+1/2'
   'z+3/4, -y, x+3/4'
   '-z+1/4, y, -x+1/4'
   '-z, y+1/4, x+1/4'
   'z, -y+3/4, -x+3/4'
   '-z+1/2, -y+1/2, -x'
   'z+1/2, y+1/2, x'

loop_
   _atom_site_label
   _atom_site_occupancy
   _atom_site_fract_x
   _atom_site_fract_y
   _atom_site_fract_z
   _atom_site_adp_type
   _atom_site_B_iso_or_equiv
   _atom_site_type_symbol
   Ge1        1.0     0.875000      0.375000      0.375000     Biso  1.000000 Ge
