data_Wien2k_Data
_cell_length_a    3.970538
_cell_length_b    3.970538
_cell_length_c    2.822346
_cell_angle_alpha   90.000000
_cell_angle_beta    90.000000
_cell_angle_gamma   90.000000
_symmetry_space_group_name_H-M         'I4/mmm '
_symmetry_space_group_number  139

_refine_date  ' 8- 5-2015'
_refine_method 'generated from Wien2k code' 
_refine_special_details 
;
Structure converted from Wien2k struct file, Version 9.1
File Name /home/kurt/lda/tocif/tmp/tmp.struct                                             
Title 'Hg LDA'
;

loop_
_symmetry_equiv_pos_as_xyz
   +x,+y,+z
   -x,-y,+z
   -y,+x,+z
   +y,-x,+z
   -x,+y,-z
   +x,-y,-z
   +y,+x,-z
   -y,-x,-z
   -x,-y,-z
   +x,+y,-z
   +y,-x,-z
   -y,+x,-z
   +x,-y,+z
   -x,+y,+z
   -y,-x,+z
   +y,+x,+z
   +x+1/2,+y+1/2,+z+1/2
   -x+1/2,-y+1/2,+z+1/2
   -y+1/2,+x+1/2,+z+1/2
   +y+1/2,-x+1/2,+z+1/2
   -x+1/2,+y+1/2,-z+1/2
   +x+1/2,-y+1/2,-z+1/2
   +y+1/2,+x+1/2,-z+1/2
   -y+1/2,-x+1/2,-z+1/2
   -x+1/2,-y+1/2,-z+1/2
   +x+1/2,+y+1/2,-z+1/2
   +y+1/2,-x+1/2,-z+1/2
   -y+1/2,+x+1/2,-z+1/2
   +x+1/2,-y+1/2,+z+1/2
   -x+1/2,+y+1/2,+z+1/2
   -y+1/2,-x+1/2,+z+1/2
   +y+1/2,+x+1/2,+z+1/2
loop_
_atom_site_label
_atom_site_type_symbol
_atom_site_fract_x
_atom_site_fract_y
_atom_site_fract_z
Hg001  Hg  0.00000000  0.00000000  0.00000000
#End data_Wien2k_Data

