#======================================================================

# CRYSTAL DATA

#----------------------------------------------------------------------

data_VESTA_phase_1


_pd_phase_name                         'LDA nitrogen'
_cell_length_a                         5.22142
_cell_length_b                         5.22142
_cell_length_c                         5.22142
_cell_angle_alpha                      90
_cell_angle_beta                       90
_cell_angle_gamma                      90
_symmetry_space_group_name_H-M         'P 1'
_symmetry_Int_Tables_number            1

loop_
_symmetry_equiv_pos_as_xyz
   'x, y, z'

loop_
   _atom_site_label
   _atom_site_occupancy
   _atom_site_fract_x
   _atom_site_fract_y
   _atom_site_fract_z
   _atom_site_adp_type
   _atom_site_B_iso_or_equiv
   _atom_site_type_symbol
   N1         1.0     0.560541      0.560541      0.560541     Biso  1.000000 N
   N2         1.0     0.939459      0.439459      0.060541     Biso  1.000000 N
   N3         1.0     0.439459      0.060541      0.939459     Biso  1.000000 N
   N4         1.0     0.060541      0.939459      0.439459     Biso  1.000000 N
   N5         1.0     0.439459      0.439459      0.439459     Biso  1.000000 N
   N6         1.0     0.060541      0.560541      0.939459     Biso  1.000000 N
   N7         1.0     0.560541      0.939459      0.060541     Biso  1.000000 N
   N8         1.0     0.939459      0.060541      0.560541     Biso  1.000000 N
