#======================================================================

# CRYSTAL DATA

#----------------------------------------------------------------------

data_VESTA_phase_1


_pd_phase_name                         'LDA phosphorus'
_cell_length_a                         3.31153
_cell_length_b                         10.17196
_cell_length_c                         4.13574
_cell_angle_alpha                      90
_cell_angle_beta                       90
_cell_angle_gamma                      90
_symmetry_space_group_name_H-M         'P 1'
_symmetry_Int_Tables_number            1

loop_
_symmetry_equiv_pos_as_xyz
   'x, y, z'

loop_
   _atom_site_label
   _atom_site_occupancy
   _atom_site_fract_x
   _atom_site_fract_y
   _atom_site_fract_z
   _atom_site_adp_type
   _atom_site_B_iso_or_equiv
   _atom_site_type_symbol
   P1         1.0     0.000000      0.893595      0.571232     Biso  1.000000 P
   P2         1.0     0.500000      0.393595      0.571232     Biso  1.000000 P
   P3         1.0     0.000000      0.606405      0.071232     Biso  1.000000 P
   P4         1.0     0.500000      0.106405      0.071232     Biso  1.000000 P
   P5         1.0     0.000000      0.393595      0.928768     Biso  1.000000 P
   P6         1.0     0.500000      0.893595      0.928768     Biso  1.000000 P
   P7         1.0     0.000000      0.106405      0.428768     Biso  1.000000 P
   P8         1.0     0.500000      0.606405      0.428768     Biso  1.000000 P
