data_Wien2k_Data
_cell_length_a    2.527302
_cell_length_b    2.527302
_cell_length_c    2.527302
_cell_angle_alpha   90.014297
_cell_angle_beta    90.014297
_cell_angle_gamma   90.014297
_symmetry_space_group_name_H-M         'R-3m   '
_symmetry_space_group_number  166
_space_group_crystal_system rhombohedral

_refine_date  ' 8- 5-2015'
_refine_method 'generated from Wien2k code' 
_refine_special_details 
;
Structure converted from Wien2k struct file, Version 9.1
File Name /home/kurt/lda/tocif/tmp/tmp.struct                                             
Title 'S LDA'
;

loop_
_symmetry_equiv_pos_as_xyz
   +x,+y,+z
   +z,+x,+y
   +y,+z,+x
   -y,-x,-z
   -x,-z,-y
   -z,-y,-x
   -x,-y,-z
   -z,-x,-y
   -y,-z,-x
   +y,+x,+z
   +x,+z,+y
   +z,+y,+x
loop_
_atom_site_label
_atom_site_type_symbol
_atom_site_fract_x
_atom_site_fract_y
_atom_site_fract_z
S0001  S   0.00000000  0.00000000  0.00000000
#End data_Wien2k_Data

