#======================================================================

# CRYSTAL DATA

#----------------------------------------------------------------------

data_VESTA_phase_1


_pd_phase_name                         'LDA selenium'
_cell_length_a                         3.93866
_cell_length_b                         3.93866
_cell_length_c                         5.12526
_cell_angle_alpha                      90
_cell_angle_beta                       90
_cell_angle_gamma                      120
_symmetry_space_group_name_H-M         'P 1'
_symmetry_Int_Tables_number            1

loop_
_symmetry_equiv_pos_as_xyz
   'x, y, z'

loop_
   _atom_site_label
   _atom_site_occupancy
   _atom_site_fract_x
   _atom_site_fract_y
   _atom_site_fract_z
   _atom_site_adp_type
   _atom_site_B_iso_or_equiv
   _atom_site_type_symbol
   Se1        1.0     0.256413      0.000000      0.333333     Biso  1.000000 Se
   Se2        1.0     0.000000      0.256413      0.666667     Biso  1.000000 Se
   Se3        1.0     0.743587      0.743587      0.000000     Biso  1.000000 Se
