#======================================================================

# CRYSTAL DATA

#----------------------------------------------------------------------

data_VESTA_phase_1


_pd_phase_name                         'Si '
_cell_length_a                         3.81910
_cell_length_b                         3.81910
_cell_length_c                         3.81910
_cell_angle_alpha                      60
_cell_angle_beta                       60
_cell_angle_gamma                      60
_symmetry_space_group_name_H-M         'P 1'
_symmetry_Int_Tables_number            1

loop_
_symmetry_equiv_pos_as_xyz
   'x, y, z'

loop_
   _atom_site_label
   _atom_site_occupancy
   _atom_site_fract_x
   _atom_site_fract_y
   _atom_site_fract_z
   _atom_site_adp_type
   _atom_site_B_iso_or_equiv
   _atom_site_type_symbol
   Si1        1.0     0.875000      0.375000      0.875000     Biso  1.000000 Si
   Si2        1.0     0.125000      0.625000      0.125000     Biso  1.000000 Si
